data/casedata/data_init/aus-data/AU14GenModelData_Ver04/LF_Case01_R4_Report.txt
1                                    PTI INTERACTIVE POWER SYSTEM SIMULATOR--PSS®E      MON, FEB 17 2014  18:49
                         LF_CASE01_R3_S  14-GENERATOR, SIMPLIFIED SYSTEM MODEL.           %MVA FOR TRANSFORMERS
                         AREA4->AREA2->AREA3->AREA5 500-1000-500 MW.                      % I  FOR NON-TRANSFORMER BRANCHES

 X------- FROM BUS ------X AREA  VOLT            GEN    LOAD    SHUNT  X---------- TO BUS ----------X                        TRANSFORMER     RATING
   BUS# X-- NAME --X BASKV ZONE  PU/KV  ANGLE  MW/MVAR MW/MVAR MW/MVAR   BUS# X-- NAME --X BASKV AREA CKT    MW     MVAR    RATIO   ANGLE   %  SET A

    101 1_HPSGEN    15.000    1 1.0000    0.0   300.8      0.0     0.0 -----------------------------------------------------------------------------
                              1 15.000          311.5R     0.0     0.0    102 1_HPS330    330.00    1  1    300.8   311.5  0.939LK

    102 1_HPS330    330.00    1 1.0390   -1.4     0.0    450.0     0.0 -----------------------------------------------------------------------------
                              1 342.85            0.0     45.0     0.0    101 1_HPSGEN    15.000    1  1   -300.8  -296.6  1.000UN
                                                                          217 2_YC_330    330.00    2  1   -277.2    75.9
                                                                          217 2_YC_330    330.00    2  2   -277.2    75.9
                                                                          217 2_YC_330    330.00    2  3   -298.2    88.0
                                                                          217 2_YC_330    330.00    2  4   -298.2    88.0
                                                                          309 3_D__330    330.00    3  1    415.6   -18.6
                                                                          309 3_D__330    330.00    3  2    415.6   -18.6
                                                                          309 3_D__330    330.00    3  3    170.5   -38.9
    201 2_BPSGEN    20.000    2 1.0000   48.9  3600.0      0.0     0.0 -----------------------------------------------------------------------------
                              1 20.000          573.6R     0.0     0.0    206 2_BPS330    330.00    2  1   3600.0   573.6  0.943LK

    202 2_EPSGEN    20.000    2 1.0000   37.9  2500.0      0.0     0.0 -----------------------------------------------------------------------------
                              1 20.000          663.4R     0.0     0.0    209 2_EPS330    330.00    2  1   2500.0   663.4  0.939LK

    203 2_VPSGEN    20.000    2 1.0000   32.2  1500.0      0.0     0.0 -----------------------------------------------------------------------------
                              1 20.000          531.2R     0.0     0.0    208 2_VPS330    330.00    2  1   1500.0   531.2  0.939LK

    204 2_MPSGEN    20.000    2 1.0000   39.2  2950.2      0.0     0.0 -----------------------------------------------------------------------------
                              1 20.000          734.2R     0.0     0.0    215 2_MPS330    330.00    2  1   2950.2   734.2  0.939LK

    205 2_ASV330    330.00    2 1.0550   44.0     0.0    390.0     0.0 -----------------------------------------------------------------------------
                              1 348.15          -68.3R    39.0     0.0    206 2_BPS330    330.00    2  1     65.7   -47.8
                                                                          206 2_BPS330    330.00    2  2     65.7   -47.8
                                                                          416 4_DU_330    330.00    4  1   -260.7    -5.8
                                                                          416 4_DU_330    330.00    4  2   -260.7    -5.8
    206 2_BPS330    330.00    2 1.0472   41.4     0.0    130.0     0.0 -----------------------------------------------------------------------------
                              1 345.58            0.0     13.0     0.0    201 2_BPSGEN    20.000    2  1  -3600.0  -100.6  1.000UN
                                                                          205 2_ASV330    330.00    2  1    -65.3   -52.1
                                                                          205 2_ASV330    330.00    2  2    -65.3   -52.1
                                                                          207 2_N__330    330.00    2  1    723.6    44.6
                                                                          207 2_N__330    330.00    2  2    723.6    44.6
                                                                          212 2_SW_330    330.00    2  1    777.3    94.5
                                                                          212 2_SW_330    330.00    2  2    777.3    94.5
                                                                          215 2_MPS330    330.00    2  1    299.4   -43.3
                                                                          215 2_MPS330    330.00    2  2    299.4   -43.3
    207 2_N__330    330.00    2 1.0221   27.7     0.0   1880.0     0.0 -----------------------------------------------------------------------------
                              1 337.29            0.0    188.0     0.0    206 2_BPS330    330.00    2  1   -701.9    80.1
                                                                          206 2_BPS330    330.00    2  2   -701.9    80.1
                                                                          208 2_VPS330    330.00    2  1    177.1  -104.9
                                                                          208 2_VPS330    330.00    2  2    177.1  -104.9
                                                                          209 2_EPS330    330.00    2  1   -830.4  -138.4
    208 2_VPS330    330.00    2 1.0324   26.3     0.0    210.0     0.0 -----------------------------------------------------------------------------
                              1 340.71            0.0     21.0     0.0    203 2_VPSGEN    20.000    2  1  -1500.0  -360.4  1.000UN
                                                                          207 2_N__330    330.00    2  1   -176.4    92.2
                                                                          207 2_N__330    330.00    2  2   -176.4    92.2
                                                                          211 2_SN_330    330.00    2  1    547.6    51.6
                                                                          211 2_SN_330    330.00    2  2    547.6    51.6
                                                                          211 2_SN_330    330.00    2  3    547.6    51.6
    209 2_EPS330    330.00    2 1.0379   30.4     0.0      0.0     0.0 -----------------------------------------------------------------------------
                              1 342.52            0.0      0.0     0.0    202 2_EPSGEN    20.000    2  1  -2500.0  -323.6  1.000UN
                                                                          207 2_N__330    330.00    2  1    835.9   172.4
                                                                          210 2_EPS500    500.00    2  1    270.0    26.4  0.976LK
                                                                          210 2_EPS500    500.00    2  2    270.0    26.4  0.976LK
                                                                          210 2_EPS500    500.00    2  3    270.0    26.4  0.976LK
                                                                          210 2_EPS500    500.00    2  4    270.0    26.4  0.976LK
                                                                          212 2_SW_330    330.00    2  1    584.3    45.6
    210 2_EPS500    500.00    2 1.0594   26.7     0.0      0.0     0.0 -----------------------------------------------------------------------------
                              1 529.69            0.0      0.0     0.0    209 2_EPS330    330.00    2  1   -270.0    -8.7  1.000UN
                                                                          209 2_EPS330    330.00    2  2   -270.0    -8.7  1.000UN
                                                                          209 2_EPS330    330.00    2  3   -270.0    -8.7  1.000UN
                                                                          209 2_EPS330    330.00    2  4   -270.0    -8.7  1.000UN
                                                                          213 2_K__500    500.00    2  1    539.9    17.4
                                                                          213 2_K__500    500.00    2  2    539.9    17.4
    211 2_SN_330    330.00    2 1.0081   18.9     0.0   1700.0     0.0 -----------------------------------------------------------------------------
                              1 332.66            0.0    170.0     0.0    208 2_VPS330    330.00    2  1   -538.8   -12.4
                                                                          208 2_VPS330    330.00    2  2   -538.8   -12.4
                                                                          208 2_VPS330    330.00    2  3   -538.8   -12.4
                                                                          212 2_SW_330    330.00    2  1    -41.8    -4.3
                                                                          212 2_SW_330    330.00    2  2    -41.8    -4.3
                                                                          214 2_K__330    330.00    2  1     -0.2  -124.0
    212 2_SW_330    330.00    2 1.0084   19.1     0.0   1660.0     0.0 -----------------------------------------------------------------------------
                              1 332.77            0.0    166.0  -406.7    206 2_BPS330    330.00    2  1   -739.9   135.7
                                                                          206 2_BPS330    330.00    2  2   -739.9   135.7
                                                                          209 2_EPS330    330.00    2  1   -569.8    23.0
                                                                          211 2_SN_330    330.00    2  1     41.8    -9.0
                                                                          211 2_SN_330    330.00    2  2     41.8    -9.0
                                                                          217 2_YC_330    330.00    2  1    306.1   -35.7
    213 2_K__500    500.00    2 1.0426   22.7     0.0      0.0     0.0 -----------------------------------------------------------------------------
                              1 521.31            0.0      0.0     0.0    210 2_EPS500    500.00    2  1   -537.2  -148.5
                                                                          210 2_EPS500    500.00    2  2   -537.2  -148.5
                                                                          214 2_K__330    330.00    2  1    268.6    74.3  1.000LK
                                                                          214 2_K__330    330.00    2  2    268.6    74.3  1.000LK
                                                                          214 2_K__330    330.00    2  3    268.6    74.3  1.000LK
                                                                          214 2_K__330    330.00    2  4    268.6    74.3  1.000LK
    214 2_K__330    330.00    2 1.0257   18.8     0.0      0.0     0.0 -----------------------------------------------------------------------------
                              1 338.47            0.0      0.0     0.0    211 2_SN_330    330.00    2  1      0.4   106.4
                                                                          213 2_K__500    500.00    2  1   -268.6   -54.8  1.000UN
                                                                          213 2_K__500    500.00    2  2   -268.6   -54.8  1.000UN
                                                                          213 2_K__500    500.00    2  3   -268.6   -54.8  1.000UN
                                                                          213 2_K__500    500.00    2  4   -268.6   -54.8  1.000UN
                                                                          216 2_SS_330    330.00    2  1    637.9    95.4
                                                                          217 2_YC_330    330.00    2  1    436.2    17.5
    215 2_MPS330    330.00    2 1.0433   33.1     0.0    480.0     0.0 -----------------------------------------------------------------------------
                              1 344.29            0.0     48.0     0.0    204 2_MPSGEN    20.000    2  1  -2950.2  -408.2  1.000UN
                                                                          206 2_BPS330    330.00    2  1   -294.0    15.8
                                                                          206 2_BPS330    330.00    2  2   -294.0    15.8
                                                                          216 2_SS_330    330.00    2  1    779.5    67.7
                                                                          216 2_SS_330    330.00    2  2    779.5    67.7
                                                                          217 2_YC_330    330.00    2  1    749.7    96.5
                                                                          217 2_YC_330    330.00    2  2    749.7    96.5
    216 2_SS_330    330.00    2 1.0130   16.1     0.0   1840.0     0.0 -----------------------------------------------------------------------------
                              1 334.29            0.0    184.0  -307.8    214 2_K__330    330.00    2  1   -633.9   -74.7
                                                                          215 2_MPS330    330.00    2  1   -750.6   108.3
                                                                          215 2_MPS330    330.00    2  2   -750.6   108.3
                                                                          217 2_YC_330    330.00    2  1    295.1   -18.0
    217 2_YC_330    330.00    2 1.0021    9.4     0.0   1260.0     0.0 -----------------------------------------------------------------------------
                              1 330.68            0.0    126.0     0.0    102 1_HPS330    330.00    1  1    284.3  -104.6
                                                                          102 1_HPS330    330.00    1  2    284.3  -104.6
                                                                          102 1_HPS330    330.00    1  3    305.8  -106.5
                                                                          102 1_HPS330    330.00    1  4    305.8  -106.5
                                                                          212 2_SW_330    330.00    2  1   -299.6    18.0
                                                                          214 2_K__330    330.00    2  1   -427.2     4.5
                                                                          215 2_MPS330    330.00    2  1   -711.3   135.9
                                                                          215 2_MPS330    330.00    2  2   -711.3   135.9
                                                                          216 2_SS_330    330.00    2  1   -290.7     2.1
    301 3_LPSGEN    20.000    3 1.0000   -3.4  4200.0      0.0     0.0 -----------------------------------------------------------------------------
                              1 20.000          996.4R     0.0     0.0    303 3_LPS500    500.00    3  1   4200.0   996.4  0.939LK

    302 3_YPSGEN    20.000    3 1.0000  -18.0   939.9      0.0     0.0 -----------------------------------------------------------------------------
                              1 20.000          154.6R     0.0     0.0    312 3_YPS220    220.00    3  1    939.9   154.6  0.952LK

    303 3_LPS500    500.00    3 1.0417  -10.9     0.0      0.0     0.0 -----------------------------------------------------------------------------
                              1 520.85            0.0      0.0     0.0    301 3_LPSGEN    20.000    3  1  -4200.0  -433.2  1.000UN
                                                                          304 3_R__500    500.00    3  1    719.7    96.6
                                                                          304 3_R__500    500.00    3  2    719.7    96.6
                                                                          305 3_SM_500    500.00    3  1   1380.3   120.0
                                                                          305 3_SM_500    500.00    3  2   1380.3   120.0
    304 3_R__500    500.00    3 1.0093  -21.7     0.0      0.0     0.0 -----------------------------------------------------------------------------
                              1 504.67            0.0      0.0     0.0    303 3_LPS500    500.00    3  1   -709.8   -35.9
                                                                          303 3_LPS500    500.00    3  2   -709.8   -35.9
                                                                          305 3_SM_500    500.00    3  1    437.6  -228.9
                                                                          313 3_RSV220    220.00    3  1    491.0   150.4  0.961LK
                                                                          313 3_RSV220    220.00    3  2    491.0   150.4  0.961LK
    305 3_SM_500    500.00    3 1.0164  -22.8     0.0      0.0     0.0 -----------------------------------------------------------------------------
                              1 508.20            0.0      0.0     0.0    303 3_LPS500    500.00    3  1  -1360.5   -12.5
                                                                          303 3_LPS500    500.00    3  2  -1360.5   -12.5
                                                                          304 3_R__500    500.00    3  1   -436.9   194.6
                                                                          306 3_K__500    500.00    3  1   1294.2   -63.9
                                                                          307 3_M__500    500.00    3  1    881.9  -106.1
                                                                          307 3_M__500    500.00    3  2    881.9  -106.1
                                                                          311 3_SM_330    330.00    3  1   -254.2    19.3  1.000LK
                                                                          311 3_SM_330    330.00    3  2   -254.2    19.3  1.000LK
                                                                          311 3_SM_330    330.00    3  3   -254.2    19.3  1.000LK
                                                                          314 3_SM_220    220.00    3  1    431.4    24.3  1.000LK
                                                                          314 3_SM_220    220.00    3  2    431.4    24.3  1.000LK
    306 3_K__500    500.00    3 1.0160  -24.9     0.0   1230.0     0.0 -----------------------------------------------------------------------------
                              1 507.99            0.0    123.0     0.0    305 3_SM_500    500.00    3  1  -1290.9    79.6
                                                                          307 3_M__500    500.00    3  1     60.9  -202.6
    307 3_M__500    500.00    3 1.0182  -25.0     0.0    650.0     0.0 -----------------------------------------------------------------------------
                              1 509.12            0.0     65.0     0.0    305 3_SM_500    500.00    3  1   -879.6    94.0
                                                                          305 3_SM_500    500.00    3  2   -879.6    94.0
                                                                          306 3_K__500    500.00    3  1    -60.9   189.9
                                                                          308 3_H__500    500.00    3  1    585.1  -221.5
                                                                          308 3_H__500    500.00    3  2    585.1  -221.5
    308 3_H__500    500.00    3 1.0359  -35.4     0.0    655.0     0.0 -----------------------------------------------------------------------------
                              1 517.93            0.0     66.0     0.0    307 3_M__500    500.00    3  1   -577.4   -34.1
                                                                          307 3_M__500    500.00    3  2   -577.4   -34.1
                                                                          315 3_H__275    275.00    3  1    249.9     1.1  1.000LK
                                                                          315 3_H__275    275.00    3  2    249.9     1.1  1.000LK
    309 3_D__330    330.00    3 1.0291   -9.3     0.0    195.0     0.0 -----------------------------------------------------------------------------
                              1 339.61            0.0     20.0     0.0    102 1_HPS330    330.00    1  1   -408.4    28.9
                                                                          102 1_HPS330    330.00    1  2   -408.4    28.9
                                                                          102 1_HPS330    330.00    1  3   -167.5   -19.0
                                                                          310 3_SS_330    330.00    3  1    263.1   -19.6
                                                                          310 3_SS_330    330.00    3  2    263.1   -19.6
                                                                          310 3_SS_330    330.00    3  3    263.1   -19.6
    310 3_SS_330    330.00    3 1.0198  -24.8     0.0      0.0     0.0 -----------------------------------------------------------------------------
                              1 336.54            0.0      0.0     0.0    309 3_D__330    330.00    3  1   -254.2    28.4
                                                                          309 3_D__330    330.00    3  2   -254.2    28.4
                                                                          309 3_D__330    330.00    3  3   -254.2    28.4
                                                                          311 3_SM_330    330.00    3  1    381.4   -42.7
                                                                          311 3_SM_330    330.00    3  2    381.4   -42.7
    311 3_SM_330    330.00    3 1.0136  -17.7     0.0      0.0     0.0 -----------------------------------------------------------------------------
                              1 334.48            0.0      0.0     0.0    305 3_SM_500    500.00    3  1    254.2     3.4  1.000UN
                                                                          305 3_SM_500    500.00    3  2    254.2     3.4  1.000UN
                                                                          305 3_SM_500    500.00    3  3    254.2     3.4  1.000UN
                                                                          310 3_SS_330    330.00    3  1   -381.4    -5.1
                                                                          310 3_SS_330    330.00    3  2   -381.4    -5.1
    312 3_YPS220    220.00    3 1.0383  -23.6     0.0    115.0     0.0 -----------------------------------------------------------------------------
                              1 228.43            0.0     12.0     0.0    302 3_YPSGEN    20.000    3  1   -939.9   -61.9  1.000UN
                                                                          313 3_RSV220    220.00    3  1    275.0    16.6
                                                                          313 3_RSV220    220.00    3  2    275.0    16.6
                                                                          313 3_RSV220    220.00    3  3    275.0    16.6
    313 3_RSV220    220.00    3 1.0150  -30.2     0.0   2405.0     0.0 -----------------------------------------------------------------------------
                              1 223.30           71.4R   240.0     0.0    304 3_R__500    500.00    3  1   -491.0   -73.8  1.000UN
                                                                          304 3_R__500    500.00    3  2   -491.0   -73.8  1.000UN
                                                                          312 3_YPS220    220.00    3  1   -270.7   -16.2
                                                                          312 3_YPS220    220.00    3  2   -270.7   -16.2
                                                                          312 3_YPS220    220.00    3  3   -270.7   -16.2
                                                                          314 3_SM_220    220.00    3  1   -305.4    13.9
                                                                          314 3_SM_220    220.00    3  2   -305.4    13.9
    314 3_SM_220    220.00    3 1.0158  -28.5     0.0    250.0     0.0 -----------------------------------------------------------------------------
                              1 223.47            0.0     25.0     0.0    305 3_SM_500    500.00    3  1   -431.4    19.0  1.000UN
                                                                          305 3_SM_500    500.00    3  2   -431.4    19.0  1.000UN
                                                                          313 3_RSV220    220.00    3  1    306.4   -31.5
                                                                          313 3_RSV220    220.00    3  2    306.4   -31.5
    315 3_H__275    275.00    3 1.0376  -39.0     0.0      0.0     0.0 -----------------------------------------------------------------------------
                              1 285.35            0.0      0.0     0.0    308 3_H__500    500.00    3  1   -249.9    14.7  1.000UN
                                                                          308 3_H__500    500.00    3  2   -249.9    14.7  1.000UN
                                                                          509 5_SSV275    275.00    5  1    249.9   -14.7
                                                                          509 5_SSV275    275.00    5  2    249.9   -14.7
    401 4_TPSGEN    20.000    4 1.0000   74.3  1400.0      0.0     0.0 -----------------------------------------------------------------------------
                              1 20.000          514.9R     0.0     0.0    410 4_TPS275    275.00    4  1   1400.0   514.9  0.939LK

    402 4_CPSGEN    20.000    4 1.0000  107.9   837.0      0.0     0.0 -----------------------------------------------------------------------------
                              1 20.000          177.9R     0.0     0.0    408 4_CPS275    275.00    4  1    837.0   177.9  0.952LK

    403 4_SPSGEN    20.000    4 1.0000  113.3  1400.0      0.0     0.0 -----------------------------------------------------------------------------
                              1 20.000          209.2R     0.0     0.0    407 4_SPS275    275.00    4  1   1400.0   209.2  0.952LK

    404 4_GPSGEN    20.000    4 1.0000  106.5  1549.8      0.0     0.0 -----------------------------------------------------------------------------
                              1 20.000          326.8R     0.0     0.0    405 4_GPS275    275.00    4  1   1549.8   326.8  0.952LK

    405 4_GPS275    275.00    4 1.0312   99.5     0.0    990.0     0.0 -----------------------------------------------------------------------------
                              1 283.58            0.0     99.0     0.0    404 4_GPSGEN    20.000    4  1  -1549.8  -133.4  1.000UN
                                                                          406 4_N__275    275.00    4  1   -203.7    -0.6
                                                                          406 4_N__275    275.00    4  2   -203.7    -0.6
                                                                          408 4_CPS275    275.00    4  1    -30.6    -4.4
                                                                          409 4_W__275    275.00    4  1    332.6    13.3
                                                                          409 4_W__275    275.00    4  2    332.6    13.3
                                                                          409 4_W__275    275.00    4  3    332.6    13.3
    406 4_N__275    275.00    4 1.0342  104.8     0.0    740.0     0.0 -----------------------------------------------------------------------------
                              1 284.40            0.0     74.0     0.0    405 4_GPS275    275.00    4  1    205.3   -21.3
                                                                          405 4_GPS275    275.00    4  2    205.3   -21.3
                                                                          407 4_SPS275    275.00    4  1   -575.3   -15.7
                                                                          407 4_SPS275    275.00    4  2   -575.3   -15.7
    407 4_SPS275    275.00    4 1.0393  107.1     0.0      0.0     0.0 -----------------------------------------------------------------------------
                              1 285.80            0.0      0.0     0.0    403 4_SPSGEN    20.000    4  1  -1400.0   -55.6  1.000UN
                                                                          406 4_N__275    275.00    4  1    577.1    32.5
                                                                          406 4_N__275    275.00    4  2    577.1    32.5
                                                                          408 4_CPS275    275.00    4  1    245.7    -9.5
    408 4_CPS275    275.00    4 1.0301  100.4     0.0    150.0     0.0 -----------------------------------------------------------------------------
                              1 283.29            0.0     15.0     0.0    402 4_CPSGEN    20.000    4  1   -837.0   -64.9  1.000UN
                                                                          405 4_GPS275    275.00    4  1     30.7   -15.3
                                                                          407 4_SPS275    275.00    4  1   -243.4    -5.9
                                                                          410 4_TPS275    275.00    4  1    299.9    23.7
                                                                          410 4_TPS275    275.00    4  2    299.9    23.7
                                                                          410 4_TPS275    275.00    4  3    299.9    23.7
    409 4_W__275    275.00    4 0.9855   76.6     0.0    260.0     0.0 -----------------------------------------------------------------------------
                              1 271.02            0.0     26.0   -58.3    405 4_GPS275    275.00    4  1   -313.4    36.8
                                                                          405 4_GPS275    275.00    4  2   -313.4    36.8
                                                                          405 4_GPS275    275.00    4  3   -313.4    36.8
                                                                          411 4_SP_275    275.00    4  1    340.1   -39.0
                                                                          411 4_SP_275    275.00    4  2    340.1   -39.0
    410 4_TPS275    275.00    4 1.0301   68.1     0.0    530.0     0.0 -----------------------------------------------------------------------------
                              1 283.28            0.0     53.0     0.0    401 4_TPSGEN    20.000    4  1  -1400.0  -349.1  1.000UN
                                                                          408 4_CPS275    275.00    4  1   -285.4    74.0
                                                                          408 4_CPS275    275.00    4  2   -285.4    74.0
                                                                          408 4_CPS275    275.00    4  3   -285.4    74.0
                                                                          411 4_SP_275    275.00    4  1    202.9    42.9
                                                                          412 4_BW_275    275.00    4  1    246.1    30.9
                                                                          412 4_BW_275    275.00    4  2    246.1    30.9
                                                                          412 4_BW_275    275.00    4  3    246.1    30.9
                                                                          412 4_BW_275    275.00    4  4    246.1    30.9
                                                                          413 4_BR_275    275.00    4  1    269.5   -46.2
                                                                          413 4_BR_275    275.00    4  2    269.5   -46.2
    411 4_SP_275    275.00    4 0.9930   62.2     0.0    575.0     0.0 -----------------------------------------------------------------------------
                              1 273.09            0.0     58.0   -29.6    409 4_W__275    275.00    4  1   -327.8    78.6
                                                                          409 4_W__275    275.00    4  2   -327.8    78.6
                                                                          410 4_TPS275    275.00    4  1   -201.1   -63.8
                                                                          412 4_BW_275    275.00    4  1    140.8   -60.9
                                                                          412 4_BW_275    275.00    4  2    140.8   -60.9
    412 4_BW_275    275.00    4 1.0000   61.0     0.0   1255.0     0.0 -----------------------------------------------------------------------------
                              1 275.00           58.2R   126.0     0.0    410 4_TPS275    275.00    4  1   -243.5   -43.1
                                                                          410 4_TPS275    275.00    4  2   -243.5   -43.1
                                                                          410 4_TPS275    275.00    4  3   -243.5   -43.1
                                                                          410 4_TPS275    275.00    4  4   -243.5   -43.1
                                                                          411 4_SP_275    275.00    4  1   -140.5    52.3
                                                                          411 4_SP_275    275.00    4  2   -140.5    52.3
    413 4_BR_275    275.00    4 1.0398   61.0     0.0      0.0     0.0 -----------------------------------------------------------------------------
                              1 285.95            0.0      0.0     0.0    410 4_TPS275    275.00    4  1   -266.7    37.5
                                                                          410 4_TPS275    275.00    4  2   -266.7    37.5
                                                                          414 4_BR_330    330.00    4  1    177.8   -25.0  1.000LK
                                                                          414 4_BR_330    330.00    4  2    177.8   -25.0  1.000LK
                                                                          414 4_BR_330    330.00    4  3    177.8   -25.0  1.000LK
    414 4_BR_330    330.00    4 1.0418   60.2     0.0      0.0     0.0 -----------------------------------------------------------------------------
                              1 343.80            0.0      0.0    32.6    413 4_BR_275    275.00    4  1   -177.8    27.4  1.000UN
                                                                          413 4_BR_275    275.00    4  2   -177.8    27.4  1.000UN
                                                                          413 4_BR_275    275.00    4  3   -177.8    27.4  1.000UN
                                                                          415 4_BU_330    330.00    4  1    266.7   -57.3
                                                                          415 4_BU_330    330.00    4  2    266.7   -57.3
    415 4_BU_330    330.00    4 1.0474   56.7     0.0      0.0     0.0 -----------------------------------------------------------------------------
                              1 345.64            0.0      0.0    65.8    414 4_BR_330    330.00    4  1   -265.4    31.4
                                                                          414 4_BR_330    330.00    4  2   -265.4    31.4
                                                                          416 4_DU_330    330.00    4  1    265.4   -64.4
                                                                          416 4_DU_330    330.00    4  2    265.4   -64.4
    416 4_DU_330    330.00    4 1.0552   50.3     0.0      0.0     0.0 -----------------------------------------------------------------------------
                              1 348.23            0.0      0.0    66.8    205 2_ASV330    330.00    2  1    263.0   -46.9
                                                                          205 2_ASV330    330.00    2  2    263.0   -46.9
                                                                          415 4_BU_330    330.00    4  1   -263.0    13.5
                                                                          415 4_BU_330    330.00    4  2   -263.0    13.5
    501 5_NPSGEN    20.000    5 1.0000  -55.3   600.0      0.0     0.0 -----------------------------------------------------------------------------
                              1 20.000           50.7R     0.0     0.0    504 5_D__275    275.00    5  1    600.0    50.7  0.952LK

    502 5_TPSGEN    15.000    5 1.0000  -54.0   800.0      0.0     0.0 -----------------------------------------------------------------------------
                              1 15.000          160.3R     0.0     0.0    505 5_TPS275    275.00    5  1    800.0   160.3  0.962LK

    503 5_PPSGEN    15.000    5 1.0000  -56.3   436.0      0.0     0.0 -----------------------------------------------------------------------------
                              1 15.000          100.9R     0.0     0.0    506 5_PPS275    275.00    5  1    436.0   100.9  0.962LK

    504 5_D__275    275.00    5 1.0478  -63.3     0.0    300.0     0.0 -----------------------------------------------------------------------------
                              1 288.16            0.0     60.0     0.0    501 5_NPSGEN    20.000    5  1   -600.0    33.2  1.000UN
                                                                          507 5_PSV275    275.00    5  1      5.2    -8.6
                                                                          507 5_PSV275    275.00    5  2      5.2    -8.6
                                                                          508 5_CG_275    275.00    5  1    144.8   -38.0
                                                                          508 5_CG_275    275.00    5  2    144.8   -38.0
    505 5_TPS275    275.00    5 1.0221  -60.9     0.0      0.0     0.0 -----------------------------------------------------------------------------
                              1 281.07            0.0      0.0     0.0    502 5_TPSGEN    15.000    5  1   -800.0   -61.7  1.000UN
                                                                          507 5_PSV275    275.00    5  1    276.9    21.0
                                                                          507 5_PSV275    275.00    5  2    276.9    21.0
                                                                          508 5_CG_275    275.00    5  1    246.2    19.7
    506 5_PPS275    275.00    5 1.0204  -62.2     0.0      0.0     0.0 -----------------------------------------------------------------------------
                              1 280.62            0.0      0.0     0.0    503 5_PPSGEN    15.000    5  1   -436.0   -54.5  1.000UN
                                                                          507 5_PSV275    275.00    5  1    137.2    19.6
                                                                          507 5_PSV275    275.00    5  2    137.2    19.6
                                                                          508 5_CG_275    275.00    5  1    161.6    15.3
    507 5_PSV275    275.00    5 1.0150  -63.5     0.0   1000.0     0.0 -----------------------------------------------------------------------------
                              1 279.12           22.6R   200.0     0.0    504 5_D__275    275.00    5  1     -5.1   -50.3
                                                                          504 5_D__275    275.00    5  2     -5.1   -50.3
                                                                          505 5_TPS275    275.00    5  1   -275.7   -11.6
                                                                          505 5_TPS275    275.00    5  2   -275.7   -11.6
                                                                          506 5_PPS275    275.00    5  1   -136.9   -19.6
                                                                          506 5_PPS275    275.00    5  2   -136.9   -19.6
                                                                          508 5_CG_275    275.00    5  1    115.1     8.9
                                                                          509 5_SSV275    275.00    5  1    -46.6    -3.9
                                                                          509 5_SSV275    275.00    5  2    -46.6    -3.9
                                                                          509 5_SSV275    275.00    5  3    -46.6    -3.9
                                                                          509 5_SSV275    275.00    5  4    -46.6    -3.9
                                                                          509 5_SSV275    275.00    5  5    -46.6    -3.9
                                                                          509 5_SSV275    275.00    5  6    -46.6    -3.9
    508 5_CG_275    275.00    5 1.0104  -64.7     0.0    800.0     0.0 -----------------------------------------------------------------------------
                              1 277.87            0.0    160.0     0.0    504 5_D__275    275.00    5  1   -139.8   -50.5
                                                                          504 5_D__275    275.00    5  2   -139.8   -50.5
                                                                          505 5_TPS275    275.00    5  1   -244.7   -20.7
                                                                          506 5_PPS275    275.00    5  1   -160.9   -22.6
                                                                          507 5_PSV275    275.00    5  1   -114.8   -15.6
    509 5_SSV275    275.00    5 1.0300  -45.7     0.0    200.0     0.0 -----------------------------------------------------------------------------
                              1 283.25           10.6R    40.0     0.0    315 3_H__275    275.00    3  1   -245.9    23.4
                                                                          315 3_H__275    275.00    3  2   -245.9    23.4
                                                                          507 5_PSV275    275.00    5  1     48.6   -12.7
                                                                          507 5_PSV275    275.00    5  2     48.6   -12.7
                                                                          507 5_PSV275    275.00    5  3     48.6   -12.7
                                                                          507 5_PSV275    275.00    5  4     48.6   -12.7
                                                                          507 5_PSV275    275.00    5  5     48.6   -12.7
                                                                          507 5_PSV275    275.00    5  6     48.6   -12.7
